*Heading
** Job name: Job-1 Model name: Model-1
** Generated by: Abaqus/CAE Learning Edition 2023
*Preprint, echo=NO, model=NO, history=NO, contact=NO
**
** PARTS
**
*Part, name=Roof
*Node
      1,          10.,   4.59935808,          35.
      2,          10.,   4.59935808,           0.
      3,          35.,           0.,           0.
      4,          35.,           0.,          35.
      5,          -5.,   4.89996004,           0.
      6,          -5.,   4.89996004,          35.
      7,         -35.,           0.,          35.
      8,         -35.,           0.,           0.
      9,          10.,           0.,          35.
     10,          10.,           0.,           0.
     11,          -5.,           0.,          35.
     12,          -5.,           0.,           0.
     13,          10.,   4.59935808,   31.1111107
     14,          10.,   4.59935808,   27.2222214
     15,          10.,   4.59935808,    23.333334
     16,          10.,   4.59935808,   19.4444447
     17,          10.,   4.59935808,   15.5555553
     18,          10.,   4.59935808,    11.666667
     19,          10.,   4.59935808,   7.77777767
     20,          10.,   4.59935808,   3.88888884
** ... 190 like lines cut
*Element, type=S4R
 1,   1,  13,  91,  38
 2,  13,  14,  92,  91
 3,  14,  15,  93,  92
 4,  15,  16,  94,  93
 5,  16,  17,  95,  94
 6,  17,  18,  96,  95
 7,  18,  19,  97,  96
 8,  19,  20,  98,  97
 9,  20,   2,  21,  98
10,  38,  91,  99,  37
11,  91,  92, 100,  99
12,  92,  93, 101, 100
13,  93,  94, 102, 101
14,  94,  95, 103, 102
15,  95,  96, 104, 103
16,  96,  97, 105, 104
17,  97,  98, 106, 105
18,  98,  21,  22, 106
19,  37,  99, 107,  36
20,  99, 100, 108, 107
** ... 160 like lines cut
*Nset, nset=_PickedSet2, internal, generate
   1,  210,    1
*Elset, elset=_PickedSet2, internal, generate
   1,  180,    1
*Nset, nset=Support_Set, generate
  1,  90,   1
*Elset, elset=Support_Set
   1,   9,  10,  18,  19,  27,  28,  36,  37,  45,  46,  47,  48,  49,  50,  51
  52,  53,  54,  55,  63,  64,  72,  73,  81,  82,  90,  91,  99, 100, 108, 109
 117, 118, 119, 120, 121, 122, 123, 124, 125, 126, 127, 135, 136, 144, 145, 153
 154, 162, 163, 164, 165, 166, 167, 168, 169, 170, 171, 172, 173, 174, 175, 176
 177, 178, 179, 180
*Nset, nset=All_Faces_Set, generate
   1,  210,    1
*Elset, elset=All_Faces_Set, generate
   1,  180,    1
*Nset, nset=Pressure_Set
   1,   2,   3,   4,   5,   6,   7,   8,  13,  14,  15,  16,  17,  18,  19,  20
  21,  22,  23,  24,  25,  26,  27,  28,  29,  30,  31,  32,  33,  34,  35,  36
  37,  38,  39,  40,  41,  42,  43,  44,  45,  46,  47,  48,  49,  50,  51,  52
  53,  54,  55,  56,  57,  58,  59,  60,  61,  62,  63,  64,  65,  66,  67,  68
  69,  70,  71,  72,  73,  74,  91,  92,  93,  94,  95,  96,  97,  98,  99, 100
 101, 102, 103, 104, 105, 106, 107, 108, 109, 110, 111, 112, 113, 114, 115, 116
 117, 118, 119, 120, 121, 122, 123, 124, 125, 126, 127, 128, 129, 130, 131, 132
 133, 134, 135, 136, 137, 138, 139, 140, 141, 142, 143, 144, 145, 146, 147, 148
 149, 150, 151, 152, 153, 154, 155, 156, 157, 158, 159, 160, 161, 162, 163, 164
 165, 166, 167, 168, 169, 170, 171, 172, 173, 174, 175, 176, 177, 178, 179, 180
 181, 182, 183, 184, 185, 186, 187, 188, 189, 190, 191, 192, 193, 194, 195, 196
 197, 198, 199, 200, 201, 202, 203, 204, 205, 206, 207, 208, 209, 210
*Elset, elset=Pressure_Set, generate
   1,  162,    1
** Section: Roof_Section
*Shell Section, elset=_PickedSet2, material=Steel
1., 5
*End Part
**  
**
** ASSEMBLY
**
*Assembly, name=Assembly
**  
*Instance, name=Roof-1, part=Roof
*End Instance
**  
*Elset, elset=__PickedSurf4_SNEG, internal, instance=Roof-1, generate
   1,  162,    1
*Surface, type=ELEMENT, name=_PickedSurf4, internal
__PickedSurf4_SNEG, SNEG
*End Assembly
** 
** MATERIALS
** 
*Material, name=Steel
*Elastic
210000., 0.3
** ----------------------------------------------------------------
** 
** STEP: Step-1
** 
*Step, name=Step-1, nlgeom=NO
*Static, direct
0.1, 1., 
** 
** BOUNDARY CONDITIONS
** 
** Name: BC-1 Type: Symmetry/Antisymmetry/Encastre
*Boundary
Roof-1.Support_Set, ENCASTRE
** 
** LOADS
** 
** Name: Load-1   Type: Pressure
*Dsload
_PickedSurf4, P, 200.
** 
** OUTPUT REQUESTS
** 
*Restart, write, frequency=0
** 
** FIELD OUTPUT: F-Output-1
** 
*Output, field, variable=PRESELECT
** 
** HISTORY OUTPUT: H-Output-1
** 
*Output, history, variable=PRESELECT
*End Step
